
---------- Begin Simulation Statistics ----------
simSeconds                                   0.000001                       # Number of seconds simulated (Second)
simTicks                                      1000000                       # Number of ticks simulated (Tick)
finalTick                                     1000000                       # Number of ticks from beginning of simulation (restored from checkpoints and never reset) (Tick)
simFreq                                  1000000000000                       # The number of ticks per simulated second ((Tick/Second))
hostSeconds                                      1.52                       # Real time elapsed on the host (Second)
hostTickRate                                   659241                       # The number of ticks simulated per host second (ticks/s) ((Tick/Second))
hostMemory                                     873976                       # Number of bytes of host memory used (Byte)
system.clk_domain.clock                          1000                       # Clock period in ticks (Tick)
system.cpu0.power_state.pwrStateResidencyTicks::UNDEFINED      1000000                       # Cumulative time (in ticks) in various power states (Tick)
system.cpu1.power_state.pwrStateResidencyTicks::UNDEFINED      1000000                       # Cumulative time (in ticks) in various power states (Tick)
system.cpu10.power_state.pwrStateResidencyTicks::UNDEFINED      1000000                       # Cumulative time (in ticks) in various power states (Tick)
system.cpu11.power_state.pwrStateResidencyTicks::UNDEFINED      1000000                       # Cumulative time (in ticks) in various power states (Tick)
system.cpu12.power_state.pwrStateResidencyTicks::UNDEFINED      1000000                       # Cumulative time (in ticks) in various power states (Tick)
system.cpu13.power_state.pwrStateResidencyTicks::UNDEFINED      1000000                       # Cumulative time (in ticks) in various power states (Tick)
system.cpu14.power_state.pwrStateResidencyTicks::UNDEFINED      1000000                       # Cumulative time (in ticks) in various power states (Tick)
system.cpu15.power_state.pwrStateResidencyTicks::UNDEFINED      1000000                       # Cumulative time (in ticks) in various power states (Tick)
system.cpu16.power_state.pwrStateResidencyTicks::UNDEFINED      1000000                       # Cumulative time (in ticks) in various power states (Tick)
system.cpu17.power_state.pwrStateResidencyTicks::UNDEFINED      1000000                       # Cumulative time (in ticks) in various power states (Tick)
system.cpu18.power_state.pwrStateResidencyTicks::UNDEFINED      1000000                       # Cumulative time (in ticks) in various power states (Tick)
system.cpu19.power_state.pwrStateResidencyTicks::UNDEFINED      1000000                       # Cumulative time (in ticks) in various power states (Tick)
system.cpu2.power_state.pwrStateResidencyTicks::UNDEFINED      1000000                       # Cumulative time (in ticks) in various power states (Tick)
system.cpu20.power_state.pwrStateResidencyTicks::UNDEFINED      1000000                       # Cumulative time (in ticks) in various power states (Tick)
system.cpu21.power_state.pwrStateResidencyTicks::UNDEFINED      1000000                       # Cumulative time (in ticks) in various power states (Tick)
system.cpu22.power_state.pwrStateResidencyTicks::UNDEFINED      1000000                       # Cumulative time (in ticks) in various power states (Tick)
system.cpu23.power_state.pwrStateResidencyTicks::UNDEFINED      1000000                       # Cumulative time (in ticks) in various power states (Tick)
system.cpu24.power_state.pwrStateResidencyTicks::UNDEFINED      1000000                       # Cumulative time (in ticks) in various power states (Tick)
system.cpu25.power_state.pwrStateResidencyTicks::UNDEFINED      1000000                       # Cumulative time (in ticks) in various power states (Tick)
system.cpu26.power_state.pwrStateResidencyTicks::UNDEFINED      1000000                       # Cumulative time (in ticks) in various power states (Tick)
system.cpu27.power_state.pwrStateResidencyTicks::UNDEFINED      1000000                       # Cumulative time (in ticks) in various power states (Tick)
system.cpu28.power_state.pwrStateResidencyTicks::UNDEFINED      1000000                       # Cumulative time (in ticks) in various power states (Tick)
system.cpu29.power_state.pwrStateResidencyTicks::UNDEFINED      1000000                       # Cumulative time (in ticks) in various power states (Tick)
system.cpu3.power_state.pwrStateResidencyTicks::UNDEFINED      1000000                       # Cumulative time (in ticks) in various power states (Tick)
system.cpu30.power_state.pwrStateResidencyTicks::UNDEFINED      1000000                       # Cumulative time (in ticks) in various power states (Tick)
system.cpu31.power_state.pwrStateResidencyTicks::UNDEFINED      1000000                       # Cumulative time (in ticks) in various power states (Tick)
system.cpu32.power_state.pwrStateResidencyTicks::UNDEFINED      1000000                       # Cumulative time (in ticks) in various power states (Tick)
system.cpu33.power_state.pwrStateResidencyTicks::UNDEFINED      1000000                       # Cumulative time (in ticks) in various power states (Tick)
system.cpu34.power_state.pwrStateResidencyTicks::UNDEFINED      1000000                       # Cumulative time (in ticks) in various power states (Tick)
system.cpu35.power_state.pwrStateResidencyTicks::UNDEFINED      1000000                       # Cumulative time (in ticks) in various power states (Tick)
system.cpu36.power_state.pwrStateResidencyTicks::UNDEFINED      1000000                       # Cumulative time (in ticks) in various power states (Tick)
system.cpu37.power_state.pwrStateResidencyTicks::UNDEFINED      1000000                       # Cumulative time (in ticks) in various power states (Tick)
system.cpu38.power_state.pwrStateResidencyTicks::UNDEFINED      1000000                       # Cumulative time (in ticks) in various power states (Tick)
system.cpu39.power_state.pwrStateResidencyTicks::UNDEFINED      1000000                       # Cumulative time (in ticks) in various power states (Tick)
system.cpu4.power_state.pwrStateResidencyTicks::UNDEFINED      1000000                       # Cumulative time (in ticks) in various power states (Tick)
system.cpu40.power_state.pwrStateResidencyTicks::UNDEFINED      1000000                       # Cumulative time (in ticks) in various power states (Tick)
system.cpu41.power_state.pwrStateResidencyTicks::UNDEFINED      1000000                       # Cumulative time (in ticks) in various power states (Tick)
system.cpu42.power_state.pwrStateResidencyTicks::UNDEFINED      1000000                       # Cumulative time (in ticks) in various power states (Tick)
system.cpu43.power_state.pwrStateResidencyTicks::UNDEFINED      1000000                       # Cumulative time (in ticks) in various power states (Tick)
system.cpu44.power_state.pwrStateResidencyTicks::UNDEFINED      1000000                       # Cumulative time (in ticks) in various power states (Tick)
system.cpu45.power_state.pwrStateResidencyTicks::UNDEFINED      1000000                       # Cumulative time (in ticks) in various power states (Tick)
system.cpu46.power_state.pwrStateResidencyTicks::UNDEFINED      1000000                       # Cumulative time (in ticks) in various power states (Tick)
system.cpu47.power_state.pwrStateResidencyTicks::UNDEFINED      1000000                       # Cumulative time (in ticks) in various power states (Tick)
system.cpu48.power_state.pwrStateResidencyTicks::UNDEFINED      1000000                       # Cumulative time (in ticks) in various power states (Tick)
system.cpu49.power_state.pwrStateResidencyTicks::UNDEFINED      1000000                       # Cumulative time (in ticks) in various power states (Tick)
system.cpu5.power_state.pwrStateResidencyTicks::UNDEFINED      1000000                       # Cumulative time (in ticks) in various power states (Tick)
system.cpu50.power_state.pwrStateResidencyTicks::UNDEFINED      1000000                       # Cumulative time (in ticks) in various power states (Tick)
system.cpu51.power_state.pwrStateResidencyTicks::UNDEFINED      1000000                       # Cumulative time (in ticks) in various power states (Tick)
system.cpu52.power_state.pwrStateResidencyTicks::UNDEFINED      1000000                       # Cumulative time (in ticks) in various power states (Tick)
system.cpu53.power_state.pwrStateResidencyTicks::UNDEFINED      1000000                       # Cumulative time (in ticks) in various power states (Tick)
system.cpu54.power_state.pwrStateResidencyTicks::UNDEFINED      1000000                       # Cumulative time (in ticks) in various power states (Tick)
system.cpu55.power_state.pwrStateResidencyTicks::UNDEFINED      1000000                       # Cumulative time (in ticks) in various power states (Tick)
system.cpu56.power_state.pwrStateResidencyTicks::UNDEFINED      1000000                       # Cumulative time (in ticks) in various power states (Tick)
system.cpu57.power_state.pwrStateResidencyTicks::UNDEFINED      1000000                       # Cumulative time (in ticks) in various power states (Tick)
system.cpu58.power_state.pwrStateResidencyTicks::UNDEFINED      1000000                       # Cumulative time (in ticks) in various power states (Tick)
system.cpu59.power_state.pwrStateResidencyTicks::UNDEFINED      1000000                       # Cumulative time (in ticks) in various power states (Tick)
system.cpu6.power_state.pwrStateResidencyTicks::UNDEFINED      1000000                       # Cumulative time (in ticks) in various power states (Tick)
system.cpu60.power_state.pwrStateResidencyTicks::UNDEFINED      1000000                       # Cumulative time (in ticks) in various power states (Tick)
system.cpu61.power_state.pwrStateResidencyTicks::UNDEFINED      1000000                       # Cumulative time (in ticks) in various power states (Tick)
system.cpu62.power_state.pwrStateResidencyTicks::UNDEFINED      1000000                       # Cumulative time (in ticks) in various power states (Tick)
system.cpu63.power_state.pwrStateResidencyTicks::UNDEFINED      1000000                       # Cumulative time (in ticks) in various power states (Tick)
system.cpu7.power_state.pwrStateResidencyTicks::UNDEFINED      1000000                       # Cumulative time (in ticks) in various power states (Tick)
system.cpu8.power_state.pwrStateResidencyTicks::UNDEFINED      1000000                       # Cumulative time (in ticks) in various power states (Tick)
system.cpu9.power_state.pwrStateResidencyTicks::UNDEFINED      1000000                       # Cumulative time (in ticks) in various power states (Tick)
system.mem_ctrls0.priorityMinLatency     0.000000000000                       # per QoS priority minimum request to response latency (Second)
system.mem_ctrls0.priorityMaxLatency     0.000000000000                       # per QoS priority maximum request to response latency (Second)
system.mem_ctrls0.numReadWriteTurnArounds            0                       # Number of turnarounds from READ to WRITE (Count)
system.mem_ctrls0.numWriteReadTurnArounds            0                       # Number of turnarounds from WRITE to READ (Count)
system.mem_ctrls0.numStayReadState                  0                       # Number of times bus staying in READ state (Count)
system.mem_ctrls0.numStayWriteState                 0                       # Number of times bus staying in WRITE state (Count)
system.mem_ctrls0.readReqs                          0                       # Number of read requests accepted (Count)
system.mem_ctrls0.writeReqs                         0                       # Number of write requests accepted (Count)
system.mem_ctrls0.readBursts                        0                       # Number of controller read bursts, including those serviced by the write queue (Count)
system.mem_ctrls0.writeBursts                       0                       # Number of controller write bursts, including those merged in the write queue (Count)
system.mem_ctrls0.servicedByWrQ                     0                       # Number of controller read bursts serviced by the write queue (Count)
system.mem_ctrls0.mergedWrBursts                    0                       # Number of controller write bursts merged with an existing one (Count)
system.mem_ctrls0.neitherReadNorWriteReqs            0                       # Number of requests that are neither read nor write (Count)
system.mem_ctrls0.avgRdQLen                      0.00                       # Average read queue length when enqueuing ((Count/Tick))
system.mem_ctrls0.avgWrQLen                      0.00                       # Average write queue length when enqueuing ((Count/Tick))
system.mem_ctrls0.numRdRetry                        0                       # Number of times read queue was full causing retry (Count)
system.mem_ctrls0.numWrRetry                        0                       # Number of times write queue was full causing retry (Count)
system.mem_ctrls0.readPktSize::0                    0                       # Read request sizes (log2) (Count)
system.mem_ctrls0.readPktSize::1                    0                       # Read request sizes (log2) (Count)
system.mem_ctrls0.readPktSize::2                    0                       # Read request sizes (log2) (Count)
system.mem_ctrls0.readPktSize::3                    0                       # Read request sizes (log2) (Count)
system.mem_ctrls0.readPktSize::4                    0                       # Read request sizes (log2) (Count)
system.mem_ctrls0.readPktSize::5                    0                       # Read request sizes (log2) (Count)
system.mem_ctrls0.readPktSize::6                    0                       # Read request sizes (log2) (Count)
system.mem_ctrls0.writePktSize::0                   0                       # Write request sizes (log2) (Count)
system.mem_ctrls0.writePktSize::1                   0                       # Write request sizes (log2) (Count)
system.mem_ctrls0.writePktSize::2                   0                       # Write request sizes (log2) (Count)
system.mem_ctrls0.writePktSize::3                   0                       # Write request sizes (log2) (Count)
system.mem_ctrls0.writePktSize::4                   0                       # Write request sizes (log2) (Count)
system.mem_ctrls0.writePktSize::5                   0                       # Write request sizes (log2) (Count)
system.mem_ctrls0.writePktSize::6                   0                       # Write request sizes (log2) (Count)
system.mem_ctrls0.rdQLenPdf::0                      0                       # What read queue length does an incoming req see (Count)
system.mem_ctrls0.rdQLenPdf::1                      0                       # What read queue length does an incoming req see (Count)
system.mem_ctrls0.rdQLenPdf::2                      0                       # What read queue length does an incoming req see (Count)
system.mem_ctrls0.rdQLenPdf::3                      0                       # What read queue length does an incoming req see (Count)
system.mem_ctrls0.rdQLenPdf::4                      0                       # What read queue length does an incoming req see (Count)
system.mem_ctrls0.rdQLenPdf::5                      0                       # What read queue length does an incoming req see (Count)
system.mem_ctrls0.rdQLenPdf::6                      0                       # What read queue length does an incoming req see (Count)
system.mem_ctrls0.rdQLenPdf::7                      0                       # What read queue length does an incoming req see (Count)
system.mem_ctrls0.rdQLenPdf::8                      0                       # What read queue length does an incoming req see (Count)
system.mem_ctrls0.rdQLenPdf::9                      0                       # What read queue length does an incoming req see (Count)
system.mem_ctrls0.rdQLenPdf::10                     0                       # What read queue length does an incoming req see (Count)
system.mem_ctrls0.rdQLenPdf::11                     0                       # What read queue length does an incoming req see (Count)
system.mem_ctrls0.rdQLenPdf::12                     0                       # What read queue length does an incoming req see (Count)
system.mem_ctrls0.rdQLenPdf::13                     0                       # What read queue length does an incoming req see (Count)
system.mem_ctrls0.rdQLenPdf::14                     0                       # What read queue length does an incoming req see (Count)
system.mem_ctrls0.rdQLenPdf::15                     0                       # What read queue length does an incoming req see (Count)
system.mem_ctrls0.rdQLenPdf::16                     0                       # What read queue length does an incoming req see (Count)
system.mem_ctrls0.rdQLenPdf::17                     0                       # What read queue length does an incoming req see (Count)
system.mem_ctrls0.rdQLenPdf::18                     0                       # What read queue length does an incoming req see (Count)
system.mem_ctrls0.rdQLenPdf::19                     0                       # What read queue length does an incoming req see (Count)
system.mem_ctrls0.rdQLenPdf::20                     0                       # What read queue length does an incoming req see (Count)
system.mem_ctrls0.rdQLenPdf::21                     0                       # What read queue length does an incoming req see (Count)
system.mem_ctrls0.rdQLenPdf::22                     0                       # What read queue length does an incoming req see (Count)
system.mem_ctrls0.rdQLenPdf::23                     0                       # What read queue length does an incoming req see (Count)
system.mem_ctrls0.rdQLenPdf::24                     0                       # What read queue length does an incoming req see (Count)
system.mem_ctrls0.rdQLenPdf::25                     0                       # What read queue length does an incoming req see (Count)
system.mem_ctrls0.rdQLenPdf::26                     0                       # What read queue length does an incoming req see (Count)
system.mem_ctrls0.rdQLenPdf::27                     0                       # What read queue length does an incoming req see (Count)
system.mem_ctrls0.rdQLenPdf::28                     0                       # What read queue length does an incoming req see (Count)
system.mem_ctrls0.rdQLenPdf::29                     0                       # What read queue length does an incoming req see (Count)
system.mem_ctrls0.rdQLenPdf::30                     0                       # What read queue length does an incoming req see (Count)
system.mem_ctrls0.rdQLenPdf::31                     0                       # What read queue length does an incoming req see (Count)
system.mem_ctrls0.wrQLenPdf::0                      0                       # What write queue length does an incoming req see (Count)
system.mem_ctrls0.wrQLenPdf::1                      0                       # What write queue length does an incoming req see (Count)
system.mem_ctrls0.wrQLenPdf::2                      0                       # What write queue length does an incoming req see (Count)
system.mem_ctrls0.wrQLenPdf::3                      0                       # What write queue length does an incoming req see (Count)
system.mem_ctrls0.wrQLenPdf::4                      0                       # What write queue length does an incoming req see (Count)
system.mem_ctrls0.wrQLenPdf::5                      0                       # What write queue length does an incoming req see (Count)
system.mem_ctrls0.wrQLenPdf::6                      0                       # What write queue length does an incoming req see (Count)
system.mem_ctrls0.wrQLenPdf::7                      0                       # What write queue length does an incoming req see (Count)
system.mem_ctrls0.wrQLenPdf::8                      0                       # What write queue length does an incoming req see (Count)
system.mem_ctrls0.wrQLenPdf::9                      0                       # What write queue length does an incoming req see (Count)
system.mem_ctrls0.wrQLenPdf::10                     0                       # What write queue length does an incoming req see (Count)
system.mem_ctrls0.wrQLenPdf::11                     0                       # What write queue length does an incoming req see (Count)
system.mem_ctrls0.wrQLenPdf::12                     0                       # What write queue length does an incoming req see (Count)
system.mem_ctrls0.wrQLenPdf::13                     0                       # What write queue length does an incoming req see (Count)
system.mem_ctrls0.wrQLenPdf::14                     0                       # What write queue length does an incoming req see (Count)
system.mem_ctrls0.wrQLenPdf::15                     0                       # What write queue length does an incoming req see (Count)
system.mem_ctrls0.wrQLenPdf::16                     0                       # What write queue length does an incoming req see (Count)
system.mem_ctrls0.wrQLenPdf::17                     0                       # What write queue length does an incoming req see (Count)
system.mem_ctrls0.wrQLenPdf::18                     0                       # What write queue length does an incoming req see (Count)
system.mem_ctrls0.wrQLenPdf::19                     0                       # What write queue length does an incoming req see (Count)
system.mem_ctrls0.wrQLenPdf::20                     0                       # What write queue length does an incoming req see (Count)
system.mem_ctrls0.wrQLenPdf::21                     0                       # What write queue length does an incoming req see (Count)
system.mem_ctrls0.wrQLenPdf::22                     0                       # What write queue length does an incoming req see (Count)
system.mem_ctrls0.wrQLenPdf::23                     0                       # What write queue length does an incoming req see (Count)
system.mem_ctrls0.wrQLenPdf::24                     0                       # What write queue length does an incoming req see (Count)
system.mem_ctrls0.wrQLenPdf::25                     0                       # What write queue length does an incoming req see (Count)
system.mem_ctrls0.wrQLenPdf::26                     0                       # What write queue length does an incoming req see (Count)
system.mem_ctrls0.wrQLenPdf::27                     0                       # What write queue length does an incoming req see (Count)
system.mem_ctrls0.wrQLenPdf::28                     0                       # What write queue length does an incoming req see (Count)
system.mem_ctrls0.wrQLenPdf::29                     0                       # What write queue length does an incoming req see (Count)
system.mem_ctrls0.wrQLenPdf::30                     0                       # What write queue length does an incoming req see (Count)
system.mem_ctrls0.wrQLenPdf::31                     0                       # What write queue length does an incoming req see (Count)
system.mem_ctrls0.wrQLenPdf::32                     0                       # What write queue length does an incoming req see (Count)
system.mem_ctrls0.wrQLenPdf::33                     0                       # What write queue length does an incoming req see (Count)
system.mem_ctrls0.wrQLenPdf::34                     0                       # What write queue length does an incoming req see (Count)
system.mem_ctrls0.wrQLenPdf::35                     0                       # What write queue length does an incoming req see (Count)
system.mem_ctrls0.wrQLenPdf::36                     0                       # What write queue length does an incoming req see (Count)
system.mem_ctrls0.wrQLenPdf::37                     0                       # What write queue length does an incoming req see (Count)
system.mem_ctrls0.wrQLenPdf::38                     0                       # What write queue length does an incoming req see (Count)
system.mem_ctrls0.wrQLenPdf::39                     0                       # What write queue length does an incoming req see (Count)
system.mem_ctrls0.wrQLenPdf::40                     0                       # What write queue length does an incoming req see (Count)
system.mem_ctrls0.wrQLenPdf::41                     0                       # What write queue length does an incoming req see (Count)
system.mem_ctrls0.wrQLenPdf::42                     0                       # What write queue length does an incoming req see (Count)
system.mem_ctrls0.wrQLenPdf::43                     0                       # What write queue length does an incoming req see (Count)
system.mem_ctrls0.wrQLenPdf::44                     0                       # What write queue length does an incoming req see (Count)
system.mem_ctrls0.wrQLenPdf::45                     0                       # What write queue length does an incoming req see (Count)
system.mem_ctrls0.wrQLenPdf::46                     0                       # What write queue length does an incoming req see (Count)
system.mem_ctrls0.wrQLenPdf::47                     0                       # What write queue length does an incoming req see (Count)
system.mem_ctrls0.wrQLenPdf::48                     0                       # What write queue length does an incoming req see (Count)
system.mem_ctrls0.wrQLenPdf::49                     0                       # What write queue length does an incoming req see (Count)
system.mem_ctrls0.wrQLenPdf::50                     0                       # What write queue length does an incoming req see (Count)
system.mem_ctrls0.wrQLenPdf::51                     0                       # What write queue length does an incoming req see (Count)
system.mem_ctrls0.wrQLenPdf::52                     0                       # What write queue length does an incoming req see (Count)
system.mem_ctrls0.wrQLenPdf::53                     0                       # What write queue length does an incoming req see (Count)
system.mem_ctrls0.wrQLenPdf::54                     0                       # What write queue length does an incoming req see (Count)
system.mem_ctrls0.wrQLenPdf::55                     0                       # What write queue length does an incoming req see (Count)
system.mem_ctrls0.wrQLenPdf::56                     0                       # What write queue length does an incoming req see (Count)
system.mem_ctrls0.wrQLenPdf::57                     0                       # What write queue length does an incoming req see (Count)
system.mem_ctrls0.wrQLenPdf::58                     0                       # What write queue length does an incoming req see (Count)
system.mem_ctrls0.wrQLenPdf::59                     0                       # What write queue length does an incoming req see (Count)
system.mem_ctrls0.wrQLenPdf::60                     0                       # What write queue length does an incoming req see (Count)
system.mem_ctrls0.wrQLenPdf::61                     0                       # What write queue length does an incoming req see (Count)
system.mem_ctrls0.wrQLenPdf::62                     0                       # What write queue length does an incoming req see (Count)
system.mem_ctrls0.wrQLenPdf::63                     0                       # What write queue length does an incoming req see (Count)
system.mem_ctrls0.bytesReadWrQ                      0                       # Total number of bytes read from write queue (Byte)
system.mem_ctrls0.bytesReadSys                      0                       # Total read bytes from the system interface side (Byte)
system.mem_ctrls0.bytesWrittenSys                   0                       # Total written bytes from the system interface side (Byte)
system.mem_ctrls0.avgRdBWSys               0.00000000                       # Average system read bandwidth in Byte/s ((Byte/Second))
system.mem_ctrls0.avgWrBWSys               0.00000000                       # Average system write bandwidth in Byte/s ((Byte/Second))
system.mem_ctrls0.totGap                            0                       # Total gap between requests (Tick)
system.mem_ctrls0.avgGap                          nan                       # Average gap between requests ((Tick/Count))
system.mem_ctrls0.dram.readBursts                   0                       # Number of DRAM read bursts (Count)
system.mem_ctrls0.dram.writeBursts                  0                       # Number of DRAM write bursts (Count)
system.mem_ctrls0.dram.perBankRdBursts::0            0                       # Per bank write bursts (Count)
system.mem_ctrls0.dram.perBankRdBursts::1            0                       # Per bank write bursts (Count)
system.mem_ctrls0.dram.perBankRdBursts::2            0                       # Per bank write bursts (Count)
system.mem_ctrls0.dram.perBankRdBursts::3            0                       # Per bank write bursts (Count)
system.mem_ctrls0.dram.perBankRdBursts::4            0                       # Per bank write bursts (Count)
system.mem_ctrls0.dram.perBankRdBursts::5            0                       # Per bank write bursts (Count)
system.mem_ctrls0.dram.perBankRdBursts::6            0                       # Per bank write bursts (Count)
system.mem_ctrls0.dram.perBankRdBursts::7            0                       # Per bank write bursts (Count)
system.mem_ctrls0.dram.perBankRdBursts::8            0                       # Per bank write bursts (Count)
system.mem_ctrls0.dram.perBankRdBursts::9            0                       # Per bank write bursts (Count)
system.mem_ctrls0.dram.perBankRdBursts::10            0                       # Per bank write bursts (Count)
system.mem_ctrls0.dram.perBankRdBursts::11            0                       # Per bank write bursts (Count)
system.mem_ctrls0.dram.perBankRdBursts::12            0                       # Per bank write bursts (Count)
system.mem_ctrls0.dram.perBankRdBursts::13            0                       # Per bank write bursts (Count)
system.mem_ctrls0.dram.perBankRdBursts::14            0                       # Per bank write bursts (Count)
system.mem_ctrls0.dram.perBankRdBursts::15            0                       # Per bank write bursts (Count)
system.mem_ctrls0.dram.perBankWrBursts::0            0                       # Per bank write bursts (Count)
system.mem_ctrls0.dram.perBankWrBursts::1            0                       # Per bank write bursts (Count)
system.mem_ctrls0.dram.perBankWrBursts::2            0                       # Per bank write bursts (Count)
system.mem_ctrls0.dram.perBankWrBursts::3            0                       # Per bank write bursts (Count)
system.mem_ctrls0.dram.perBankWrBursts::4            0                       # Per bank write bursts (Count)
system.mem_ctrls0.dram.perBankWrBursts::5            0                       # Per bank write bursts (Count)
system.mem_ctrls0.dram.perBankWrBursts::6            0                       # Per bank write bursts (Count)
system.mem_ctrls0.dram.perBankWrBursts::7            0                       # Per bank write bursts (Count)
system.mem_ctrls0.dram.perBankWrBursts::8            0                       # Per bank write bursts (Count)
system.mem_ctrls0.dram.perBankWrBursts::9            0                       # Per bank write bursts (Count)
system.mem_ctrls0.dram.perBankWrBursts::10            0                       # Per bank write bursts (Count)
system.mem_ctrls0.dram.perBankWrBursts::11            0                       # Per bank write bursts (Count)
system.mem_ctrls0.dram.perBankWrBursts::12            0                       # Per bank write bursts (Count)
system.mem_ctrls0.dram.perBankWrBursts::13            0                       # Per bank write bursts (Count)
system.mem_ctrls0.dram.perBankWrBursts::14            0                       # Per bank write bursts (Count)
system.mem_ctrls0.dram.perBankWrBursts::15            0                       # Per bank write bursts (Count)
system.mem_ctrls0.dram.totQLat                      0                       # Total ticks spent queuing (Tick)
system.mem_ctrls0.dram.totBusLat                    0                       # Total ticks spent in databus transfers (Tick)
system.mem_ctrls0.dram.totMemAccLat                 0                       # Total ticks spent from burst creation until serviced by the DRAM (Tick)
system.mem_ctrls0.dram.avgQLat                    nan                       # Average queueing delay per DRAM burst ((Tick/Count))
system.mem_ctrls0.dram.avgBusLat                  nan                       # Average bus latency per DRAM burst ((Tick/Count))
system.mem_ctrls0.dram.avgMemAccLat               nan                       # Average memory access latency per DRAM burst ((Tick/Count))
system.mem_ctrls0.dram.readRowHits                  0                       # Number of row buffer hits during reads (Count)
system.mem_ctrls0.dram.writeRowHits                 0                       # Number of row buffer hits during writes (Count)
system.mem_ctrls0.dram.readRowHitRate             nan                       # Row buffer hit rate for reads (Ratio)
system.mem_ctrls0.dram.writeRowHitRate            nan                       # Row buffer hit rate for writes (Ratio)
system.mem_ctrls0.dram.bytesRead                    0                       # Total bytes read (Byte)
system.mem_ctrls0.dram.bytesWritten                 0                       # Total bytes written (Byte)
system.mem_ctrls0.dram.avgRdBW                      0                       # Average DRAM read bandwidth in MiBytes/s ((Byte/Second))
system.mem_ctrls0.dram.avgWrBW                      0                       # Average DRAM write bandwidth in MiBytes/s ((Byte/Second))
system.mem_ctrls0.dram.peakBW                12800.00                       # Theoretical peak bandwidth in MiByte/s ((Byte/Second))
system.mem_ctrls0.dram.busUtil                   0.00                       # Data bus utilization in percentage (Ratio)
system.mem_ctrls0.dram.busUtilRead               0.00                       # Data bus utilization in percentage for reads (Ratio)
system.mem_ctrls0.dram.busUtilWrite              0.00                       # Data bus utilization in percentage for writes (Ratio)
system.mem_ctrls0.dram.pageHitRate                nan                       # Row buffer hit rate, read and write combined (Ratio)
system.mem_ctrls0.dram.power_state.pwrStateResidencyTicks::UNDEFINED      1000000                       # Cumulative time (in ticks) in various power states (Tick)
system.mem_ctrls0.dram.rank0.actEnergy              0                       # Energy for activate commands per rank (pJ) (Joule)
system.mem_ctrls0.dram.rank0.preEnergy              0                       # Energy for precharge commands per rank (pJ) (Joule)
system.mem_ctrls0.dram.rank0.readEnergy             0                       # Energy for read commands per rank (pJ) (Joule)
system.mem_ctrls0.dram.rank0.writeEnergy            0                       # Energy for write commands per rank (pJ) (Joule)
system.mem_ctrls0.dram.rank0.refreshEnergy            0                       # Energy for refresh commands per rank (pJ) (Joule)
system.mem_ctrls0.dram.rank0.actBackEnergy            0                       # Energy for active background per rank (pJ) (Joule)
system.mem_ctrls0.dram.rank0.preBackEnergy       384000                       # Energy for precharge background per rank (pJ) (Joule)
system.mem_ctrls0.dram.rank0.actPowerDownEnergy            0                       # Energy for active power-down per rank (pJ) (Joule)
system.mem_ctrls0.dram.rank0.prePowerDownEnergy            0                       # Energy for precharge power-down per rank (pJ) (Joule)
system.mem_ctrls0.dram.rank0.selfRefreshEnergy            0                       # Energy for self refresh per rank (pJ) (Joule)
system.mem_ctrls0.dram.rank0.totalEnergy       384000                       # Total energy per rank (pJ) (Joule)
system.mem_ctrls0.dram.rank0.averagePower          384                       # Core power per rank (mW) (Watt)
system.mem_ctrls0.dram.rank0.totalIdleTime            0                       # Total Idle time Per DRAM Rank (Tick)
system.mem_ctrls0.dram.rank0.pwrStateTime::IDLE      1000000                       # Time in different power states (Tick)
system.mem_ctrls0.dram.rank0.pwrStateTime::REF            0                       # Time in different power states (Tick)
system.mem_ctrls0.dram.rank0.pwrStateTime::SREF            0                       # Time in different power states (Tick)
system.mem_ctrls0.dram.rank0.pwrStateTime::PRE_PDN            0                       # Time in different power states (Tick)
system.mem_ctrls0.dram.rank0.pwrStateTime::ACT            0                       # Time in different power states (Tick)
system.mem_ctrls0.dram.rank0.pwrStateTime::ACT_PDN            0                       # Time in different power states (Tick)
system.mem_ctrls0.dram.rank1.actEnergy              0                       # Energy for activate commands per rank (pJ) (Joule)
system.mem_ctrls0.dram.rank1.preEnergy              0                       # Energy for precharge commands per rank (pJ) (Joule)
system.mem_ctrls0.dram.rank1.readEnergy             0                       # Energy for read commands per rank (pJ) (Joule)
system.mem_ctrls0.dram.rank1.writeEnergy            0                       # Energy for write commands per rank (pJ) (Joule)
system.mem_ctrls0.dram.rank1.refreshEnergy            0                       # Energy for refresh commands per rank (pJ) (Joule)
system.mem_ctrls0.dram.rank1.actBackEnergy            0                       # Energy for active background per rank (pJ) (Joule)
system.mem_ctrls0.dram.rank1.preBackEnergy       384000                       # Energy for precharge background per rank (pJ) (Joule)
system.mem_ctrls0.dram.rank1.actPowerDownEnergy            0                       # Energy for active power-down per rank (pJ) (Joule)
system.mem_ctrls0.dram.rank1.prePowerDownEnergy            0                       # Energy for precharge power-down per rank (pJ) (Joule)
system.mem_ctrls0.dram.rank1.selfRefreshEnergy            0                       # Energy for self refresh per rank (pJ) (Joule)
system.mem_ctrls0.dram.rank1.totalEnergy       384000                       # Total energy per rank (pJ) (Joule)
system.mem_ctrls0.dram.rank1.averagePower          384                       # Core power per rank (mW) (Watt)
system.mem_ctrls0.dram.rank1.totalIdleTime            0                       # Total Idle time Per DRAM Rank (Tick)
system.mem_ctrls0.dram.rank1.pwrStateTime::IDLE      1000000                       # Time in different power states (Tick)
system.mem_ctrls0.dram.rank1.pwrStateTime::REF            0                       # Time in different power states (Tick)
system.mem_ctrls0.dram.rank1.pwrStateTime::SREF            0                       # Time in different power states (Tick)
system.mem_ctrls0.dram.rank1.pwrStateTime::PRE_PDN            0                       # Time in different power states (Tick)
system.mem_ctrls0.dram.rank1.pwrStateTime::ACT            0                       # Time in different power states (Tick)
system.mem_ctrls0.dram.rank1.pwrStateTime::ACT_PDN            0                       # Time in different power states (Tick)
system.mem_ctrls0.power_state.pwrStateResidencyTicks::UNDEFINED      1000000                       # Cumulative time (in ticks) in various power states (Tick)
system.mem_ctrls1.priorityMinLatency     0.000000000000                       # per QoS priority minimum request to response latency (Second)
system.mem_ctrls1.priorityMaxLatency     0.000000000000                       # per QoS priority maximum request to response latency (Second)
system.mem_ctrls1.numReadWriteTurnArounds            0                       # Number of turnarounds from READ to WRITE (Count)
system.mem_ctrls1.numWriteReadTurnArounds            0                       # Number of turnarounds from WRITE to READ (Count)
system.mem_ctrls1.numStayReadState                  0                       # Number of times bus staying in READ state (Count)
system.mem_ctrls1.numStayWriteState                 0                       # Number of times bus staying in WRITE state (Count)
system.mem_ctrls1.readReqs                          0                       # Number of read requests accepted (Count)
system.mem_ctrls1.writeReqs                         0                       # Number of write requests accepted (Count)
system.mem_ctrls1.readBursts                        0                       # Number of controller read bursts, including those serviced by the write queue (Count)
system.mem_ctrls1.writeBursts                       0                       # Number of controller write bursts, including those merged in the write queue (Count)
system.mem_ctrls1.servicedByWrQ                     0                       # Number of controller read bursts serviced by the write queue (Count)
system.mem_ctrls1.mergedWrBursts                    0                       # Number of controller write bursts merged with an existing one (Count)
system.mem_ctrls1.neitherReadNorWriteReqs            0                       # Number of requests that are neither read nor write (Count)
system.mem_ctrls1.avgRdQLen                      0.00                       # Average read queue length when enqueuing ((Count/Tick))
system.mem_ctrls1.avgWrQLen                      0.00                       # Average write queue length when enqueuing ((Count/Tick))
system.mem_ctrls1.numRdRetry                        0                       # Number of times read queue was full causing retry (Count)
system.mem_ctrls1.numWrRetry                        0                       # Number of times write queue was full causing retry (Count)
system.mem_ctrls1.readPktSize::0                    0                       # Read request sizes (log2) (Count)
system.mem_ctrls1.readPktSize::1                    0                       # Read request sizes (log2) (Count)
system.mem_ctrls1.readPktSize::2                    0                       # Read request sizes (log2) (Count)
system.mem_ctrls1.readPktSize::3                    0                       # Read request sizes (log2) (Count)
system.mem_ctrls1.readPktSize::4                    0                       # Read request sizes (log2) (Count)
system.mem_ctrls1.readPktSize::5                    0                       # Read request sizes (log2) (Count)
system.mem_ctrls1.readPktSize::6                    0                       # Read request sizes (log2) (Count)
system.mem_ctrls1.writePktSize::0                   0                       # Write request sizes (log2) (Count)
system.mem_ctrls1.writePktSize::1                   0                       # Write request sizes (log2) (Count)
system.mem_ctrls1.writePktSize::2                   0                       # Write request sizes (log2) (Count)
system.mem_ctrls1.writePktSize::3                   0                       # Write request sizes (log2) (Count)
system.mem_ctrls1.writePktSize::4                   0                       # Write request sizes (log2) (Count)
system.mem_ctrls1.writePktSize::5                   0                       # Write request sizes (log2) (Count)
system.mem_ctrls1.writePktSize::6                   0                       # Write request sizes (log2) (Count)
system.mem_ctrls1.rdQLenPdf::0                      0                       # What read queue length does an incoming req see (Count)
system.mem_ctrls1.rdQLenPdf::1                      0                       # What read queue length does an incoming req see (Count)
system.mem_ctrls1.rdQLenPdf::2                      0                       # What read queue length does an incoming req see (Count)
system.mem_ctrls1.rdQLenPdf::3                      0                       # What read queue length does an incoming req see (Count)
system.mem_ctrls1.rdQLenPdf::4                      0                       # What read queue length does an incoming req see (Count)
system.mem_ctrls1.rdQLenPdf::5                      0                       # What read queue length does an incoming req see (Count)
system.mem_ctrls1.rdQLenPdf::6                      0                       # What read queue length does an incoming req see (Count)
system.mem_ctrls1.rdQLenPdf::7                      0                       # What read queue length does an incoming req see (Count)
system.mem_ctrls1.rdQLenPdf::8                      0                       # What read queue length does an incoming req see (Count)
system.mem_ctrls1.rdQLenPdf::9                      0                       # What read queue length does an incoming req see (Count)
system.mem_ctrls1.rdQLenPdf::10                     0                       # What read queue length does an incoming req see (Count)
system.mem_ctrls1.rdQLenPdf::11                     0                       # What read queue length does an incoming req see (Count)
system.mem_ctrls1.rdQLenPdf::12                     0                       # What read queue length does an incoming req see (Count)
system.mem_ctrls1.rdQLenPdf::13                     0                       # What read queue length does an incoming req see (Count)
system.mem_ctrls1.rdQLenPdf::14                     0                       # What read queue length does an incoming req see (Count)
system.mem_ctrls1.rdQLenPdf::15                     0                       # What read queue length does an incoming req see (Count)
system.mem_ctrls1.rdQLenPdf::16                     0                       # What read queue length does an incoming req see (Count)
system.mem_ctrls1.rdQLenPdf::17                     0                       # What read queue length does an incoming req see (Count)
system.mem_ctrls1.rdQLenPdf::18                     0                       # What read queue length does an incoming req see (Count)
system.mem_ctrls1.rdQLenPdf::19                     0                       # What read queue length does an incoming req see (Count)
system.mem_ctrls1.rdQLenPdf::20                     0                       # What read queue length does an incoming req see (Count)
system.mem_ctrls1.rdQLenPdf::21                     0                       # What read queue length does an incoming req see (Count)
system.mem_ctrls1.rdQLenPdf::22                     0                       # What read queue length does an incoming req see (Count)
system.mem_ctrls1.rdQLenPdf::23                     0                       # What read queue length does an incoming req see (Count)
system.mem_ctrls1.rdQLenPdf::24                     0                       # What read queue length does an incoming req see (Count)
system.mem_ctrls1.rdQLenPdf::25                     0                       # What read queue length does an incoming req see (Count)
system.mem_ctrls1.rdQLenPdf::26                     0                       # What read queue length does an incoming req see (Count)
system.mem_ctrls1.rdQLenPdf::27                     0                       # What read queue length does an incoming req see (Count)
system.mem_ctrls1.rdQLenPdf::28                     0                       # What read queue length does an incoming req see (Count)
system.mem_ctrls1.rdQLenPdf::29                     0                       # What read queue length does an incoming req see (Count)
system.mem_ctrls1.rdQLenPdf::30                     0                       # What read queue length does an incoming req see (Count)
system.mem_ctrls1.rdQLenPdf::31                     0                       # What read queue length does an incoming req see (Count)
system.mem_ctrls1.wrQLenPdf::0                      0                       # What write queue length does an incoming req see (Count)
system.mem_ctrls1.wrQLenPdf::1                      0                       # What write queue length does an incoming req see (Count)
system.mem_ctrls1.wrQLenPdf::2                      0                       # What write queue length does an incoming req see (Count)
system.mem_ctrls1.wrQLenPdf::3                      0                       # What write queue length does an incoming req see (Count)
system.mem_ctrls1.wrQLenPdf::4                      0                       # What write queue length does an incoming req see (Count)
system.mem_ctrls1.wrQLenPdf::5                      0                       # What write queue length does an incoming req see (Count)
system.mem_ctrls1.wrQLenPdf::6                      0                       # What write queue length does an incoming req see (Count)
system.mem_ctrls1.wrQLenPdf::7                      0                       # What write queue length does an incoming req see (Count)
system.mem_ctrls1.wrQLenPdf::8                      0                       # What write queue length does an incoming req see (Count)
system.mem_ctrls1.wrQLenPdf::9                      0                       # What write queue length does an incoming req see (Count)
system.mem_ctrls1.wrQLenPdf::10                     0                       # What write queue length does an incoming req see (Count)
system.mem_ctrls1.wrQLenPdf::11                     0                       # What write queue length does an incoming req see (Count)
system.mem_ctrls1.wrQLenPdf::12                     0                       # What write queue length does an incoming req see (Count)
system.mem_ctrls1.wrQLenPdf::13                     0                       # What write queue length does an incoming req see (Count)
system.mem_ctrls1.wrQLenPdf::14                     0                       # What write queue length does an incoming req see (Count)
system.mem_ctrls1.wrQLenPdf::15                     0                       # What write queue length does an incoming req see (Count)
system.mem_ctrls1.wrQLenPdf::16                     0                       # What write queue length does an incoming req see (Count)
system.mem_ctrls1.wrQLenPdf::17                     0                       # What write queue length does an incoming req see (Count)
system.mem_ctrls1.wrQLenPdf::18                     0                       # What write queue length does an incoming req see (Count)
system.mem_ctrls1.wrQLenPdf::19                     0                       # What write queue length does an incoming req see (Count)
system.mem_ctrls1.wrQLenPdf::20                     0                       # What write queue length does an incoming req see (Count)
system.mem_ctrls1.wrQLenPdf::21                     0                       # What write queue length does an incoming req see (Count)
system.mem_ctrls1.wrQLenPdf::22                     0                       # What write queue length does an incoming req see (Count)
system.mem_ctrls1.wrQLenPdf::23                     0                       # What write queue length does an incoming req see (Count)
system.mem_ctrls1.wrQLenPdf::24                     0                       # What write queue length does an incoming req see (Count)
system.mem_ctrls1.wrQLenPdf::25                     0                       # What write queue length does an incoming req see (Count)
system.mem_ctrls1.wrQLenPdf::26                     0                       # What write queue length does an incoming req see (Count)
system.mem_ctrls1.wrQLenPdf::27                     0                       # What write queue length does an incoming req see (Count)
system.mem_ctrls1.wrQLenPdf::28                     0                       # What write queue length does an incoming req see (Count)
system.mem_ctrls1.wrQLenPdf::29                     0                       # What write queue length does an incoming req see (Count)
system.mem_ctrls1.wrQLenPdf::30                     0                       # What write queue length does an incoming req see (Count)
system.mem_ctrls1.wrQLenPdf::31                     0                       # What write queue length does an incoming req see (Count)
system.mem_ctrls1.wrQLenPdf::32                     0                       # What write queue length does an incoming req see (Count)
system.mem_ctrls1.wrQLenPdf::33                     0                       # What write queue length does an incoming req see (Count)
system.mem_ctrls1.wrQLenPdf::34                     0                       # What write queue length does an incoming req see (Count)
system.mem_ctrls1.wrQLenPdf::35                     0                       # What write queue length does an incoming req see (Count)
system.mem_ctrls1.wrQLenPdf::36                     0                       # What write queue length does an incoming req see (Count)
system.mem_ctrls1.wrQLenPdf::37                     0                       # What write queue length does an incoming req see (Count)
system.mem_ctrls1.wrQLenPdf::38                     0                       # What write queue length does an incoming req see (Count)
system.mem_ctrls1.wrQLenPdf::39                     0                       # What write queue length does an incoming req see (Count)
system.mem_ctrls1.wrQLenPdf::40                     0                       # What write queue length does an incoming req see (Count)
system.mem_ctrls1.wrQLenPdf::41                     0                       # What write queue length does an incoming req see (Count)
system.mem_ctrls1.wrQLenPdf::42                     0                       # What write queue length does an incoming req see (Count)
system.mem_ctrls1.wrQLenPdf::43                     0                       # What write queue length does an incoming req see (Count)
system.mem_ctrls1.wrQLenPdf::44                     0                       # What write queue length does an incoming req see (Count)
system.mem_ctrls1.wrQLenPdf::45                     0                       # What write queue length does an incoming req see (Count)
system.mem_ctrls1.wrQLenPdf::46                     0                       # What write queue length does an incoming req see (Count)
system.mem_ctrls1.wrQLenPdf::47                     0                       # What write queue length does an incoming req see (Count)
system.mem_ctrls1.wrQLenPdf::48                     0                       # What write queue length does an incoming req see (Count)
system.mem_ctrls1.wrQLenPdf::49                     0                       # What write queue length does an incoming req see (Count)
system.mem_ctrls1.wrQLenPdf::50                     0                       # What write queue length does an incoming req see (Count)
system.mem_ctrls1.wrQLenPdf::51                     0                       # What write queue length does an incoming req see (Count)
system.mem_ctrls1.wrQLenPdf::52                     0                       # What write queue length does an incoming req see (Count)
system.mem_ctrls1.wrQLenPdf::53                     0                       # What write queue length does an incoming req see (Count)
system.mem_ctrls1.wrQLenPdf::54                     0                       # What write queue length does an incoming req see (Count)
system.mem_ctrls1.wrQLenPdf::55                     0                       # What write queue length does an incoming req see (Count)
system.mem_ctrls1.wrQLenPdf::56                     0                       # What write queue length does an incoming req see (Count)
system.mem_ctrls1.wrQLenPdf::57                     0                       # What write queue length does an incoming req see (Count)
system.mem_ctrls1.wrQLenPdf::58                     0                       # What write queue length does an incoming req see (Count)
system.mem_ctrls1.wrQLenPdf::59                     0                       # What write queue length does an incoming req see (Count)
system.mem_ctrls1.wrQLenPdf::60                     0                       # What write queue length does an incoming req see (Count)
system.mem_ctrls1.wrQLenPdf::61                     0                       # What write queue length does an incoming req see (Count)
system.mem_ctrls1.wrQLenPdf::62                     0                       # What write queue length does an incoming req see (Count)
system.mem_ctrls1.wrQLenPdf::63                     0                       # What write queue length does an incoming req see (Count)
system.mem_ctrls1.bytesReadWrQ                      0                       # Total number of bytes read from write queue (Byte)
system.mem_ctrls1.bytesReadSys                      0                       # Total read bytes from the system interface side (Byte)
system.mem_ctrls1.bytesWrittenSys                   0                       # Total written bytes from the system interface side (Byte)
system.mem_ctrls1.avgRdBWSys               0.00000000                       # Average system read bandwidth in Byte/s ((Byte/Second))
system.mem_ctrls1.avgWrBWSys               0.00000000                       # Average system write bandwidth in Byte/s ((Byte/Second))
system.mem_ctrls1.totGap                            0                       # Total gap between requests (Tick)
system.mem_ctrls1.avgGap                          nan                       # Average gap between requests ((Tick/Count))
system.mem_ctrls1.dram.readBursts                   0                       # Number of DRAM read bursts (Count)
system.mem_ctrls1.dram.writeBursts                  0                       # Number of DRAM write bursts (Count)
system.mem_ctrls1.dram.perBankRdBursts::0            0                       # Per bank write bursts (Count)
system.mem_ctrls1.dram.perBankRdBursts::1            0                       # Per bank write bursts (Count)
system.mem_ctrls1.dram.perBankRdBursts::2            0                       # Per bank write bursts (Count)
system.mem_ctrls1.dram.perBankRdBursts::3            0                       # Per bank write bursts (Count)
system.mem_ctrls1.dram.perBankRdBursts::4            0                       # Per bank write bursts (Count)
system.mem_ctrls1.dram.perBankRdBursts::5            0                       # Per bank write bursts (Count)
system.mem_ctrls1.dram.perBankRdBursts::6            0                       # Per bank write bursts (Count)
system.mem_ctrls1.dram.perBankRdBursts::7            0                       # Per bank write bursts (Count)
system.mem_ctrls1.dram.perBankRdBursts::8            0                       # Per bank write bursts (Count)
system.mem_ctrls1.dram.perBankRdBursts::9            0                       # Per bank write bursts (Count)
system.mem_ctrls1.dram.perBankRdBursts::10            0                       # Per bank write bursts (Count)
system.mem_ctrls1.dram.perBankRdBursts::11            0                       # Per bank write bursts (Count)
system.mem_ctrls1.dram.perBankRdBursts::12            0                       # Per bank write bursts (Count)
system.mem_ctrls1.dram.perBankRdBursts::13            0                       # Per bank write bursts (Count)
system.mem_ctrls1.dram.perBankRdBursts::14            0                       # Per bank write bursts (Count)
system.mem_ctrls1.dram.perBankRdBursts::15            0                       # Per bank write bursts (Count)
system.mem_ctrls1.dram.perBankWrBursts::0            0                       # Per bank write bursts (Count)
system.mem_ctrls1.dram.perBankWrBursts::1            0                       # Per bank write bursts (Count)
system.mem_ctrls1.dram.perBankWrBursts::2            0                       # Per bank write bursts (Count)
system.mem_ctrls1.dram.perBankWrBursts::3            0                       # Per bank write bursts (Count)
system.mem_ctrls1.dram.perBankWrBursts::4            0                       # Per bank write bursts (Count)
system.mem_ctrls1.dram.perBankWrBursts::5            0                       # Per bank write bursts (Count)
system.mem_ctrls1.dram.perBankWrBursts::6            0                       # Per bank write bursts (Count)
system.mem_ctrls1.dram.perBankWrBursts::7            0                       # Per bank write bursts (Count)
system.mem_ctrls1.dram.perBankWrBursts::8            0                       # Per bank write bursts (Count)
system.mem_ctrls1.dram.perBankWrBursts::9            0                       # Per bank write bursts (Count)
system.mem_ctrls1.dram.perBankWrBursts::10            0                       # Per bank write bursts (Count)
system.mem_ctrls1.dram.perBankWrBursts::11            0                       # Per bank write bursts (Count)
system.mem_ctrls1.dram.perBankWrBursts::12            0                       # Per bank write bursts (Count)
system.mem_ctrls1.dram.perBankWrBursts::13            0                       # Per bank write bursts (Count)
system.mem_ctrls1.dram.perBankWrBursts::14            0                       # Per bank write bursts (Count)
system.mem_ctrls1.dram.perBankWrBursts::15            0                       # Per bank write bursts (Count)
system.mem_ctrls1.dram.totQLat                      0                       # Total ticks spent queuing (Tick)
system.mem_ctrls1.dram.totBusLat                    0                       # Total ticks spent in databus transfers (Tick)
system.mem_ctrls1.dram.totMemAccLat                 0                       # Total ticks spent from burst creation until serviced by the DRAM (Tick)
system.mem_ctrls1.dram.avgQLat                    nan                       # Average queueing delay per DRAM burst ((Tick/Count))
system.mem_ctrls1.dram.avgBusLat                  nan                       # Average bus latency per DRAM burst ((Tick/Count))
system.mem_ctrls1.dram.avgMemAccLat               nan                       # Average memory access latency per DRAM burst ((Tick/Count))
system.mem_ctrls1.dram.readRowHits                  0                       # Number of row buffer hits during reads (Count)
system.mem_ctrls1.dram.writeRowHits                 0                       # Number of row buffer hits during writes (Count)
system.mem_ctrls1.dram.readRowHitRate             nan                       # Row buffer hit rate for reads (Ratio)
system.mem_ctrls1.dram.writeRowHitRate            nan                       # Row buffer hit rate for writes (Ratio)
system.mem_ctrls1.dram.bytesRead                    0                       # Total bytes read (Byte)
system.mem_ctrls1.dram.bytesWritten                 0                       # Total bytes written (Byte)
system.mem_ctrls1.dram.avgRdBW                      0                       # Average DRAM read bandwidth in MiBytes/s ((Byte/Second))
system.mem_ctrls1.dram.avgWrBW                      0                       # Average DRAM write bandwidth in MiBytes/s ((Byte/Second))
system.mem_ctrls1.dram.peakBW                12800.00                       # Theoretical peak bandwidth in MiByte/s ((Byte/Second))
system.mem_ctrls1.dram.busUtil                   0.00                       # Data bus utilization in percentage (Ratio)
system.mem_ctrls1.dram.busUtilRead               0.00                       # Data bus utilization in percentage for reads (Ratio)
system.mem_ctrls1.dram.busUtilWrite              0.00                       # Data bus utilization in percentage for writes (Ratio)
system.mem_ctrls1.dram.pageHitRate                nan                       # Row buffer hit rate, read and write combined (Ratio)
system.mem_ctrls1.dram.power_state.pwrStateResidencyTicks::UNDEFINED      1000000                       # Cumulative time (in ticks) in various power states (Tick)
system.mem_ctrls1.dram.rank0.actEnergy              0                       # Energy for activate commands per rank (pJ) (Joule)
system.mem_ctrls1.dram.rank0.preEnergy              0                       # Energy for precharge commands per rank (pJ) (Joule)
system.mem_ctrls1.dram.rank0.readEnergy             0                       # Energy for read commands per rank (pJ) (Joule)
system.mem_ctrls1.dram.rank0.writeEnergy            0                       # Energy for write commands per rank (pJ) (Joule)
system.mem_ctrls1.dram.rank0.refreshEnergy            0                       # Energy for refresh commands per rank (pJ) (Joule)
system.mem_ctrls1.dram.rank0.actBackEnergy            0                       # Energy for active background per rank (pJ) (Joule)
system.mem_ctrls1.dram.rank0.preBackEnergy       384000                       # Energy for precharge background per rank (pJ) (Joule)
system.mem_ctrls1.dram.rank0.actPowerDownEnergy            0                       # Energy for active power-down per rank (pJ) (Joule)
system.mem_ctrls1.dram.rank0.prePowerDownEnergy            0                       # Energy for precharge power-down per rank (pJ) (Joule)
system.mem_ctrls1.dram.rank0.selfRefreshEnergy            0                       # Energy for self refresh per rank (pJ) (Joule)
system.mem_ctrls1.dram.rank0.totalEnergy       384000                       # Total energy per rank (pJ) (Joule)
system.mem_ctrls1.dram.rank0.averagePower          384                       # Core power per rank (mW) (Watt)
system.mem_ctrls1.dram.rank0.totalIdleTime            0                       # Total Idle time Per DRAM Rank (Tick)
system.mem_ctrls1.dram.rank0.pwrStateTime::IDLE      1000000                       # Time in different power states (Tick)
system.mem_ctrls1.dram.rank0.pwrStateTime::REF            0                       # Time in different power states (Tick)
system.mem_ctrls1.dram.rank0.pwrStateTime::SREF            0                       # Time in different power states (Tick)
system.mem_ctrls1.dram.rank0.pwrStateTime::PRE_PDN            0                       # Time in different power states (Tick)
system.mem_ctrls1.dram.rank0.pwrStateTime::ACT            0                       # Time in different power states (Tick)
system.mem_ctrls1.dram.rank0.pwrStateTime::ACT_PDN            0                       # Time in different power states (Tick)
system.mem_ctrls1.dram.rank1.actEnergy              0                       # Energy for activate commands per rank (pJ) (Joule)
system.mem_ctrls1.dram.rank1.preEnergy              0                       # Energy for precharge commands per rank (pJ) (Joule)
system.mem_ctrls1.dram.rank1.readEnergy             0                       # Energy for read commands per rank (pJ) (Joule)
system.mem_ctrls1.dram.rank1.writeEnergy            0                       # Energy for write commands per rank (pJ) (Joule)
system.mem_ctrls1.dram.rank1.refreshEnergy            0                       # Energy for refresh commands per rank (pJ) (Joule)
system.mem_ctrls1.dram.rank1.actBackEnergy            0                       # Energy for active background per rank (pJ) (Joule)
system.mem_ctrls1.dram.rank1.preBackEnergy       384000                       # Energy for precharge background per rank (pJ) (Joule)
system.mem_ctrls1.dram.rank1.actPowerDownEnergy            0                       # Energy for active power-down per rank (pJ) (Joule)
system.mem_ctrls1.dram.rank1.prePowerDownEnergy            0                       # Energy for precharge power-down per rank (pJ) (Joule)
system.mem_ctrls1.dram.rank1.selfRefreshEnergy            0                       # Energy for self refresh per rank (pJ) (Joule)
system.mem_ctrls1.dram.rank1.totalEnergy       384000                       # Total energy per rank (pJ) (Joule)
system.mem_ctrls1.dram.rank1.averagePower          384                       # Core power per rank (mW) (Watt)
system.mem_ctrls1.dram.rank1.totalIdleTime            0                       # Total Idle time Per DRAM Rank (Tick)
system.mem_ctrls1.dram.rank1.pwrStateTime::IDLE      1000000                       # Time in different power states (Tick)
system.mem_ctrls1.dram.rank1.pwrStateTime::REF            0                       # Time in different power states (Tick)
system.mem_ctrls1.dram.rank1.pwrStateTime::SREF            0                       # Time in different power states (Tick)
system.mem_ctrls1.dram.rank1.pwrStateTime::PRE_PDN            0                       # Time in different power states (Tick)
system.mem_ctrls1.dram.rank1.pwrStateTime::ACT            0                       # Time in different power states (Tick)
system.mem_ctrls1.dram.rank1.pwrStateTime::ACT_PDN            0                       # Time in different power states (Tick)
system.mem_ctrls1.power_state.pwrStateResidencyTicks::UNDEFINED      1000000                       # Cumulative time (in ticks) in various power states (Tick)
system.mem_ctrls10.priorityMinLatency    0.000000000000                       # per QoS priority minimum request to response latency (Second)
system.mem_ctrls10.priorityMaxLatency    0.000000000000                       # per QoS priority maximum request to response latency (Second)
system.mem_ctrls10.numReadWriteTurnArounds            0                       # Number of turnarounds from READ to WRITE (Count)
system.mem_ctrls10.numWriteReadTurnArounds            0                       # Number of turnarounds from WRITE to READ (Count)
system.mem_ctrls10.numStayReadState                 0                       # Number of times bus staying in READ state (Count)
system.mem_ctrls10.numStayWriteState                0                       # Number of times bus staying in WRITE state (Count)
system.mem_ctrls10.readReqs                         0                       # Number of read requests accepted (Count)
system.mem_ctrls10.writeReqs                        0                       # Number of write requests accepted (Count)
system.mem_ctrls10.readBursts                       0                       # Number of controller read bursts, including those serviced by the write queue (Count)
system.mem_ctrls10.writeBursts                      0                       # Number of controller write bursts, including those merged in the write queue (Count)
system.mem_ctrls10.servicedByWrQ                    0                       # Number of controller read bursts serviced by the write queue (Count)
system.mem_ctrls10.mergedWrBursts                   0                       # Number of controller write bursts merged with an existing one (Count)
system.mem_ctrls10.neitherReadNorWriteReqs            0                       # Number of requests that are neither read nor write (Count)
system.mem_ctrls10.avgRdQLen                     0.00                       # Average read queue length when enqueuing ((Count/Tick))
system.mem_ctrls10.avgWrQLen                     0.00                       # Average write queue length when enqueuing ((Count/Tick))
system.mem_ctrls10.numRdRetry                       0                       # Number of times read queue was full causing retry (Count)
system.mem_ctrls10.numWrRetry                       0                       # Number of times write queue was full causing retry (Count)
system.mem_ctrls10.readPktSize::0                   0                       # Read request sizes (log2) (Count)
system.mem_ctrls10.readPktSize::1                   0                       # Read request sizes (log2) (Count)
system.mem_ctrls10.readPktSize::2                   0                       # Read request sizes (log2) (Count)
system.mem_ctrls10.readPktSize::3                   0                       # Read request sizes (log2) (Count)
system.mem_ctrls10.readPktSize::4                   0                       # Read request sizes (log2) (Count)
system.mem_ctrls10.readPktSize::5                   0                       # Read request sizes (log2) (Count)
system.mem_ctrls10.readPktSize::6                   0                       # Read request sizes (log2) (Count)
system.mem_ctrls10.writePktSize::0                  0                       # Write request sizes (log2) (Count)
system.mem_ctrls10.writePktSize::1                  0                       # Write request sizes (log2) (Count)
system.mem_ctrls10.writePktSize::2                  0                       # Write request sizes (log2) (Count)
system.mem_ctrls10.writePktSize::3                  0                       # Write request sizes (log2) (Count)
system.mem_ctrls10.writePktSize::4                  0                       # Write request sizes (log2) (Count)
system.mem_ctrls10.writePktSize::5                  0                       # Write request sizes (log2) (Count)
system.mem_ctrls10.writePktSize::6                  0                       # Write request sizes (log2) (Count)
system.mem_ctrls10.rdQLenPdf::0                     0                       # What read queue length does an incoming req see (Count)
system.mem_ctrls10.rdQLenPdf::1                     0                       # What read queue length does an incoming req see (Count)
system.mem_ctrls10.rdQLenPdf::2                     0                       # What read queue length does an incoming req see (Count)
system.mem_ctrls10.rdQLenPdf::3                     0                       # What read queue length does an incoming req see (Count)
system.mem_ctrls10.rdQLenPdf::4                     0                       # What read queue length does an incoming req see (Count)
system.mem_ctrls10.rdQLenPdf::5                     0                       # What read queue length does an incoming req see (Count)
system.mem_ctrls10.rdQLenPdf::6                     0                       # What read queue length does an incoming req see (Count)
system.mem_ctrls10.rdQLenPdf::7                     0                       # What read queue length does an incoming req see (Count)
system.mem_ctrls10.rdQLenPdf::8                     0                       # What read queue length does an incoming req see (Count)
system.mem_ctrls10.rdQLenPdf::9                     0                       # What read queue length does an incoming req see (Count)
system.mem_ctrls10.rdQLenPdf::10                    0                       # What read queue length does an incoming req see (Count)
system.mem_ctrls10.rdQLenPdf::11                    0                       # What read queue length does an incoming req see (Count)
system.mem_ctrls10.rdQLenPdf::12                    0                       # What read queue length does an incoming req see (Count)
system.mem_ctrls10.rdQLenPdf::13                    0                       # What read queue length does an incoming req see (Count)
system.mem_ctrls10.rdQLenPdf::14                    0                       # What read queue length does an incoming req see (Count)
system.mem_ctrls10.rdQLenPdf::15                    0                       # What read queue length does an incoming req see (Count)
system.mem_ctrls10.rdQLenPdf::16                    0                       # What read queue length does an incoming req see (Count)
system.mem_ctrls10.rdQLenPdf::17                    0                       # What read queue length does an incoming req see (Count)
system.mem_ctrls10.rdQLenPdf::18                    0                       # What read queue length does an incoming req see (Count)
system.mem_ctrls10.rdQLenPdf::19                    0                       # What read queue length does an incoming req see (Count)
system.mem_ctrls10.rdQLenPdf::20                    0                       # What read queue length does an incoming req see (Count)
system.mem_ctrls10.rdQLenPdf::21                    0                       # What read queue length does an incoming req see (Count)
system.mem_ctrls10.rdQLenPdf::22                    0                       # What read queue length does an incoming req see (Count)
system.mem_ctrls10.rdQLenPdf::23                    0                       # What read queue length does an incoming req see (Count)
system.mem_ctrls10.rdQLenPdf::24                    0                       # What read queue length does an incoming req see (Count)
system.mem_ctrls10.rdQLenPdf::25                    0                       # What read queue length does an incoming req see (Count)
system.mem_ctrls10.rdQLenPdf::26                    0                       # What read queue length does an incoming req see (Count)
system.mem_ctrls10.rdQLenPdf::27                    0                       # What read queue length does an incoming req see (Count)
system.mem_ctrls10.rdQLenPdf::28                    0                       # What read queue length does an incoming req see (Count)
system.mem_ctrls10.rdQLenPdf::29                    0                       # What read queue length does an incoming req see (Count)
system.mem_ctrls10.rdQLenPdf::30                    0                       # What read queue length does an incoming req see (Count)
system.mem_ctrls10.rdQLenPdf::31                    0                       # What read queue length does an incoming req see (Count)
system.mem_ctrls10.wrQLenPdf::0                     0                       # What write queue length does an incoming req see (Count)
system.mem_ctrls10.wrQLenPdf::1                     0                       # What write queue length does an incoming req see (Count)
system.mem_ctrls10.wrQLenPdf::2                     0                       # What write queue length does an incoming req see (Count)
system.mem_ctrls10.wrQLenPdf::3                     0                       # What write queue length does an incoming req see (Count)
system.mem_ctrls10.wrQLenPdf::4                     0                       # What write queue length does an incoming req see (Count)
system.mem_ctrls10.wrQLenPdf::5                     0                       # What write queue length does an incoming req see (Count)
system.mem_ctrls10.wrQLenPdf::6                     0                       # What write queue length does an incoming req see (Count)
system.mem_ctrls10.wrQLenPdf::7                     0                       # What write queue length does an incoming req see (Count)
system.mem_ctrls10.wrQLenPdf::8                     0                       # What write queue length does an incoming req see (Count)
system.mem_ctrls10.wrQLenPdf::9                     0                       # What write queue length does an incoming req see (Count)
system.mem_ctrls10.wrQLenPdf::10                    0                       # What write queue length does an incoming req see (Count)
system.mem_ctrls10.wrQLenPdf::11                    0                       # What write queue length does an incoming req see (Count)
system.mem_ctrls10.wrQLenPdf::12                    0                       # What write queue length does an incoming req see (Count)
system.mem_ctrls10.wrQLenPdf::13                    0                       # What write queue length does an incoming req see (Count)
system.mem_ctrls10.wrQLenPdf::14                    0                       # What write queue length does an incoming req see (Count)
system.mem_ctrls10.wrQLenPdf::15                    0                       # What write queue length does an incoming req see (Count)
system.mem_ctrls10.wrQLenPdf::16                    0                       # What write queue length does an incoming req see (Count)
system.mem_ctrls10.wrQLenPdf::17                    0                       # What write queue length does an incoming req see (Count)
system.mem_ctrls10.wrQLenPdf::18                    0                       # What write queue length does an incoming req see (Count)
system.mem_ctrls10.wrQLenPdf::19                    0                       # What write queue length does an incoming req see (Count)
system.mem_ctrls10.wrQLenPdf::20                    0                       # What write queue length does an incoming req see (Count)
[...]
system.ruby.network.routers24.buffer_writes         1147                       (Unspecified)
system.ruby.network.routers24.crossbar_activity         1147                       (Unspecified)
system.ruby.network.routers24.sw_input_arbiter_activity         1196                       (Unspecified)
system.ruby.network.routers24.sw_output_arbiter_activity         1147                       (Unspecified)
system.ruby.network.routers25.buffer_reads         1678                       (Unspecified)
system.ruby.network.routers25.buffer_writes         1678                       (Unspecified)
system.ruby.network.routers25.crossbar_activity         1677                       (Unspecified)
system.ruby.network.routers25.sw_input_arbiter_activity         1828                       (Unspecified)
system.ruby.network.routers25.sw_output_arbiter_activity         1677                       (Unspecified)
system.ruby.network.routers26.buffer_reads         2292                       (Unspecified)
system.ruby.network.routers26.buffer_writes         2292                       (Unspecified)
system.ruby.network.routers26.crossbar_activity         2291                       (Unspecified)
system.ruby.network.routers26.sw_input_arbiter_activity         2548                       (Unspecified)
system.ruby.network.routers26.sw_output_arbiter_activity         2291                       (Unspecified)
system.ruby.network.routers27.buffer_reads         2269                       (Unspecified)
system.ruby.network.routers27.buffer_writes         2269                       (Unspecified)
system.ruby.network.routers27.crossbar_activity         2266                       (Unspecified)
system.ruby.network.routers27.sw_input_arbiter_activity         2468                       (Unspecified)
system.ruby.network.routers27.sw_output_arbiter_activity         2266                       (Unspecified)
system.ruby.network.routers28.buffer_reads         2397                       (Unspecified)
system.ruby.network.routers28.buffer_writes         2397                       (Unspecified)
system.ruby.network.routers28.crossbar_activity         2392                       (Unspecified)
system.ruby.network.routers28.sw_input_arbiter_activity         2605                       (Unspecified)
system.ruby.network.routers28.sw_output_arbiter_activity         2392                       (Unspecified)
system.ruby.network.routers29.buffer_reads         2159                       (Unspecified)
system.ruby.network.routers29.buffer_writes         2159                       (Unspecified)
system.ruby.network.routers29.crossbar_activity         2158                       (Unspecified)
system.ruby.network.routers29.sw_input_arbiter_activity         2294                       (Unspecified)
system.ruby.network.routers29.sw_output_arbiter_activity         2158                       (Unspecified)
system.ruby.network.routers30.buffer_reads         1785                       (Unspecified)
system.ruby.network.routers30.buffer_writes         1785                       (Unspecified)
system.ruby.network.routers30.crossbar_activity         1784                       (Unspecified)
system.ruby.network.routers30.sw_input_arbiter_activity         1943                       (Unspecified)
system.ruby.network.routers30.sw_output_arbiter_activity         1784                       (Unspecified)
system.ruby.network.routers31.buffer_reads         1173                       (Unspecified)
system.ruby.network.routers31.buffer_writes         1173                       (Unspecified)
system.ruby.network.routers31.crossbar_activity         1172                       (Unspecified)
system.ruby.network.routers31.sw_input_arbiter_activity         1257                       (Unspecified)
system.ruby.network.routers31.sw_output_arbiter_activity         1172                       (Unspecified)
system.ruby.network.routers32.buffer_reads         1279                       (Unspecified)
system.ruby.network.routers32.buffer_writes         1279                       (Unspecified)
system.ruby.network.routers32.crossbar_activity         1279                       (Unspecified)
system.ruby.network.routers32.sw_input_arbiter_activity         1394                       (Unspecified)
system.ruby.network.routers32.sw_output_arbiter_activity         1279                       (Unspecified)
system.ruby.network.routers33.buffer_reads         1833                       (Unspecified)
system.ruby.network.routers33.buffer_writes         1833                       (Unspecified)
system.ruby.network.routers33.crossbar_activity         1833                       (Unspecified)
system.ruby.network.routers33.sw_input_arbiter_activity         2019                       (Unspecified)
system.ruby.network.routers33.sw_output_arbiter_activity         1833                       (Unspecified)
system.ruby.network.routers34.buffer_reads         2450                       (Unspecified)
system.ruby.network.routers34.buffer_writes         2450                       (Unspecified)
system.ruby.network.routers34.crossbar_activity         2438                       (Unspecified)
system.ruby.network.routers34.sw_input_arbiter_activity         2798                       (Unspecified)
system.ruby.network.routers34.sw_output_arbiter_activity         2438                       (Unspecified)
system.ruby.network.routers35.buffer_reads         2420                       (Unspecified)
system.ruby.network.routers35.buffer_writes         2420                       (Unspecified)
system.ruby.network.routers35.crossbar_activity         2416                       (Unspecified)
system.ruby.network.routers35.sw_input_arbiter_activity         2624                       (Unspecified)
system.ruby.network.routers35.sw_output_arbiter_activity         2416                       (Unspecified)
system.ruby.network.routers36.buffer_reads         2454                       (Unspecified)
system.ruby.network.routers36.buffer_writes         2454                       (Unspecified)
system.ruby.network.routers36.crossbar_activity         2449                       (Unspecified)
system.ruby.network.routers36.sw_input_arbiter_activity         2624                       (Unspecified)
system.ruby.network.routers36.sw_output_arbiter_activity         2449                       (Unspecified)
system.ruby.network.routers37.buffer_reads         2320                       (Unspecified)
system.ruby.network.routers37.buffer_writes         2320                       (Unspecified)
system.ruby.network.routers37.crossbar_activity         2319                       (Unspecified)
system.ruby.network.routers37.sw_input_arbiter_activity         2547                       (Unspecified)
system.ruby.network.routers37.sw_output_arbiter_activity         2319                       (Unspecified)
system.ruby.network.routers38.buffer_reads         1894                       (Unspecified)
system.ruby.network.routers38.buffer_writes         1894                       (Unspecified)
system.ruby.network.routers38.crossbar_activity         1889                       (Unspecified)
system.ruby.network.routers38.sw_input_arbiter_activity         2007                       (Unspecified)
system.ruby.network.routers38.sw_output_arbiter_activity         1889                       (Unspecified)
system.ruby.network.routers39.buffer_reads         1128                       (Unspecified)
system.ruby.network.routers39.buffer_writes         1128                       (Unspecified)
system.ruby.network.routers39.crossbar_activity         1127                       (Unspecified)
system.ruby.network.routers39.sw_input_arbiter_activity         1166                       (Unspecified)
system.ruby.network.routers39.sw_output_arbiter_activity         1127                       (Unspecified)
system.ruby.network.routers40.buffer_reads         1100                       (Unspecified)
system.ruby.network.routers40.buffer_writes         1100                       (Unspecified)
system.ruby.network.routers40.crossbar_activity         1099                       (Unspecified)
system.ruby.network.routers40.sw_input_arbiter_activity         1158                       (Unspecified)
system.ruby.network.routers40.sw_output_arbiter_activity         1099                       (Unspecified)
system.ruby.network.routers41.buffer_reads         1646                       (Unspecified)
system.ruby.network.routers41.buffer_writes         1646                       (Unspecified)
system.ruby.network.routers41.crossbar_activity         1645                       (Unspecified)
system.ruby.network.routers41.sw_input_arbiter_activity         1745                       (Unspecified)
system.ruby.network.routers41.sw_output_arbiter_activity         1645                       (Unspecified)
system.ruby.network.routers42.buffer_reads         2024                       (Unspecified)
system.ruby.network.routers42.buffer_writes         2024                       (Unspecified)
system.ruby.network.routers42.crossbar_activity         2014                       (Unspecified)
system.ruby.network.routers42.sw_input_arbiter_activity         2206                       (Unspecified)
system.ruby.network.routers42.sw_output_arbiter_activity         2014                       (Unspecified)
system.ruby.network.routers43.buffer_reads         2182                       (Unspecified)
system.ruby.network.routers43.buffer_writes         2182                       (Unspecified)
system.ruby.network.routers43.crossbar_activity         2182                       (Unspecified)
system.ruby.network.routers43.sw_input_arbiter_activity         2528                       (Unspecified)
system.ruby.network.routers43.sw_output_arbiter_activity         2182                       (Unspecified)
system.ruby.network.routers44.buffer_reads         2532                       (Unspecified)
system.ruby.network.routers44.buffer_writes         2532                       (Unspecified)
system.ruby.network.routers44.crossbar_activity         2528                       (Unspecified)
system.ruby.network.routers44.sw_input_arbiter_activity         2880                       (Unspecified)
system.ruby.network.routers44.sw_output_arbiter_activity         2528                       (Unspecified)
system.ruby.network.routers45.buffer_reads         2497                       (Unspecified)
system.ruby.network.routers45.buffer_writes         2497                       (Unspecified)
system.ruby.network.routers45.crossbar_activity         2493                       (Unspecified)
system.ruby.network.routers45.sw_input_arbiter_activity         2757                       (Unspecified)
system.ruby.network.routers45.sw_output_arbiter_activity         2493                       (Unspecified)
system.ruby.network.routers46.buffer_reads         2087                       (Unspecified)
system.ruby.network.routers46.buffer_writes         2087                       (Unspecified)
system.ruby.network.routers46.crossbar_activity         2084                       (Unspecified)
system.ruby.network.routers46.sw_input_arbiter_activity         2279                       (Unspecified)
system.ruby.network.routers46.sw_output_arbiter_activity         2084                       (Unspecified)
system.ruby.network.routers47.buffer_reads         1170                       (Unspecified)
system.ruby.network.routers47.buffer_writes         1170                       (Unspecified)
system.ruby.network.routers47.crossbar_activity         1166                       (Unspecified)
system.ruby.network.routers47.sw_input_arbiter_activity         1233                       (Unspecified)
system.ruby.network.routers47.sw_output_arbiter_activity         1166                       (Unspecified)
system.ruby.network.routers48.buffer_reads          923                       (Unspecified)
system.ruby.network.routers48.buffer_writes          923                       (Unspecified)
system.ruby.network.routers48.crossbar_activity          920                       (Unspecified)
system.ruby.network.routers48.sw_input_arbiter_activity          961                       (Unspecified)
system.ruby.network.routers48.sw_output_arbiter_activity          920                       (Unspecified)
system.ruby.network.routers49.buffer_reads         1294                       (Unspecified)
system.ruby.network.routers49.buffer_writes         1294                       (Unspecified)
system.ruby.network.routers49.crossbar_activity         1294                       (Unspecified)
system.ruby.network.routers49.sw_input_arbiter_activity         1362                       (Unspecified)
system.ruby.network.routers49.sw_output_arbiter_activity         1294                       (Unspecified)
system.ruby.network.routers50.buffer_reads         1449                       (Unspecified)
system.ruby.network.routers50.buffer_writes         1449                       (Unspecified)
system.ruby.network.routers50.crossbar_activity         1447                       (Unspecified)
system.ruby.network.routers50.sw_input_arbiter_activity         1546                       (Unspecified)
system.ruby.network.routers50.sw_output_arbiter_activity         1447                       (Unspecified)
system.ruby.network.routers51.buffer_reads         1606                       (Unspecified)
system.ruby.network.routers51.buffer_writes         1606                       (Unspecified)
system.ruby.network.routers51.crossbar_activity         1606                       (Unspecified)
system.ruby.network.routers51.sw_input_arbiter_activity         1703                       (Unspecified)
system.ruby.network.routers51.sw_output_arbiter_activity         1606                       (Unspecified)
system.ruby.network.routers52.buffer_reads         1810                       (Unspecified)
system.ruby.network.routers52.buffer_writes         1810                       (Unspecified)
system.ruby.network.routers52.crossbar_activity         1805                       (Unspecified)
system.ruby.network.routers52.sw_input_arbiter_activity         1978                       (Unspecified)
system.ruby.network.routers52.sw_output_arbiter_activity         1805                       (Unspecified)
system.ruby.network.routers53.buffer_reads         1648                       (Unspecified)
system.ruby.network.routers53.buffer_writes         1648                       (Unspecified)
system.ruby.network.routers53.crossbar_activity         1646                       (Unspecified)
system.ruby.network.routers53.sw_input_arbiter_activity         1796                       (Unspecified)
system.ruby.network.routers53.sw_output_arbiter_activity         1646                       (Unspecified)
system.ruby.network.routers54.buffer_reads         1321                       (Unspecified)
system.ruby.network.routers54.buffer_writes         1321                       (Unspecified)
system.ruby.network.routers54.crossbar_activity         1320                       (Unspecified)
system.ruby.network.routers54.sw_input_arbiter_activity         1423                       (Unspecified)
system.ruby.network.routers54.sw_output_arbiter_activity         1320                       (Unspecified)
system.ruby.network.routers55.buffer_reads          827                       (Unspecified)
system.ruby.network.routers55.buffer_writes          827                       (Unspecified)
system.ruby.network.routers55.crossbar_activity          822                       (Unspecified)
system.ruby.network.routers55.sw_input_arbiter_activity          845                       (Unspecified)
system.ruby.network.routers55.sw_output_arbiter_activity          822                       (Unspecified)
system.ruby.network.routers56.buffer_reads          624                       (Unspecified)
system.ruby.network.routers56.buffer_writes          624                       (Unspecified)
system.ruby.network.routers56.crossbar_activity          622                       (Unspecified)
system.ruby.network.routers56.sw_input_arbiter_activity          654                       (Unspecified)
system.ruby.network.routers56.sw_output_arbiter_activity          622                       (Unspecified)
system.ruby.network.routers57.buffer_reads         1009                       (Unspecified)
system.ruby.network.routers57.buffer_writes         1009                       (Unspecified)
system.ruby.network.routers57.crossbar_activity         1008                       (Unspecified)
system.ruby.network.routers57.sw_input_arbiter_activity         1069                       (Unspecified)
system.ruby.network.routers57.sw_output_arbiter_activity         1008                       (Unspecified)
system.ruby.network.routers58.buffer_reads         1241                       (Unspecified)
system.ruby.network.routers58.buffer_writes         1241                       (Unspecified)
system.ruby.network.routers58.crossbar_activity         1241                       (Unspecified)
system.ruby.network.routers58.sw_input_arbiter_activity         1338                       (Unspecified)
system.ruby.network.routers58.sw_output_arbiter_activity         1241                       (Unspecified)
system.ruby.network.routers59.buffer_reads         1444                       (Unspecified)
system.ruby.network.routers59.buffer_writes         1444                       (Unspecified)
system.ruby.network.routers59.crossbar_activity         1442                       (Unspecified)
system.ruby.network.routers59.sw_input_arbiter_activity         1555                       (Unspecified)
system.ruby.network.routers59.sw_output_arbiter_activity         1442                       (Unspecified)
system.ruby.network.routers60.buffer_reads         1444                       (Unspecified)
system.ruby.network.routers60.buffer_writes         1444                       (Unspecified)
system.ruby.network.routers60.crossbar_activity         1443                       (Unspecified)
system.ruby.network.routers60.sw_input_arbiter_activity         1529                       (Unspecified)
system.ruby.network.routers60.sw_output_arbiter_activity         1443                       (Unspecified)
system.ruby.network.routers61.buffer_reads         1277                       (Unspecified)
system.ruby.network.routers61.buffer_writes         1277                       (Unspecified)
system.ruby.network.routers61.crossbar_activity         1277                       (Unspecified)
system.ruby.network.routers61.sw_input_arbiter_activity         1385                       (Unspecified)
system.ruby.network.routers61.sw_output_arbiter_activity         1277                       (Unspecified)
system.ruby.network.routers62.buffer_reads         1083                       (Unspecified)
system.ruby.network.routers62.buffer_writes         1083                       (Unspecified)
system.ruby.network.routers62.crossbar_activity         1083                       (Unspecified)
system.ruby.network.routers62.sw_input_arbiter_activity         1175                       (Unspecified)
system.ruby.network.routers62.sw_output_arbiter_activity         1083                       (Unspecified)
system.ruby.network.routers63.buffer_reads          635                       (Unspecified)
system.ruby.network.routers63.buffer_writes          635                       (Unspecified)
system.ruby.network.routers63.crossbar_activity          635                       (Unspecified)
system.ruby.network.routers63.sw_input_arbiter_activity          651                       (Unspecified)
system.ruby.network.routers63.sw_output_arbiter_activity          635                       (Unspecified)
system.ruby.network.s1_total_L1_requests         2133                       (Unspecified)
system.ruby.network.s2_total_requests_through_trojan          912                       (Unspecified)
system.ruby.network.s4_packets_rerouted           126                       (Unspecified)

---------- End Simulation Statistics   ----------
